data/power/better_grids/example1/Lines.dss
New Line.l(r:p100udt83lv-p100ulv84) Units=km Length=0.0353195 bus1=p100udt83lv.1.2 bus2=p100ulv84.1.2 switch=n enabled=y phases=2 Linecode=1P_OH_AL_4/0_Zuzara_2

New Line.l(r:p100udt83lv-p100ulv2511) Units=km Length=0.0353195 bus1=p100udt83lv.1.2 bus2=p100ulv2511.1.2 switch=n enabled=y phases=2 Linecode=1P_OH_AL_4/0_Zuzara_2

New Line.l(r:p100udt85lv-p100ulv86) Units=km Length=0.001 bus1=p100udt85lv.1.2 bus2=p100ulv86.1.2 switch=n enabled=y phases=2 Linecode=1P_OH_AL_4_Periwinkle_2

New Line.l(r:p100udm213-p100ulv87) Units=km Length=0.0237691 bus1=p100udm213.1.2 bus2=p100ulv87.1.2 switch=n enabled=y phases=2 Linecode=1P_UG_AL_1/0_Brenau_2

New Line.l(r:p100udm213-p100udt86lv) Units=km Length=0.0189244 bus1=p100udt86lv.1.2 bus2=p100udm213.1.2 switch=n enabled=y phases=2 Linecode=1P_UG_AL_1/0_Brenau_2

New Line.l(r:p100udm214-p100ulv6171) Units=km Length=0.011584900000000002 bus1=p100udm214.1.2 bus2=p100ulv6171.1.2 switch=n enabled=y phases=2 Linecode=1P_UG_AL_1/0_Brenau_2

New Line.l(r:p100udm214-p100udt86lv) Units=km Length=0.009463700000000002 bus1=p100udt86lv.1.2 bus2=p100udm214.1.2 switch=n enabled=y phases=2 Linecode=1P_UG_AL_1/0_Brenau_2

New Line.l(r:p100udm215-p100ulv88) Units=km Length=0.019799 bus1=p100udm215.1.2 bus2=p100ulv88.1.2 switch=n enabled=y phases=2 Linecode=1P_OH_AL_2/0_Rucina_2

New Line.l(r:p100udm215-p100udt87lv) Units=km Length=0.019449300000000003 bus1=p100udt87lv.1.2 bus2=p100udm215.1.2 switch=n enabled=y phases=2 Linecode=1P_OH_AL_2/0_Rucina_2

New Line.l(r:p100udm216-p100ulv89) Units=km Length=0.019104 bus1=p100udm216.1.2 bus2=p100ulv89.1.2 switch=n enabled=y phases=2 Linecode=1P_OH_AL_2/0_Rucina_2

New Line.l(r:p100udm216-p100udt87lv) Units=km Length=0.0390903 bus1=p100udt87lv.1.2 bus2=p100udm216.1.2 switch=n enabled=y phases=2 Linecode=1P_OH_AL_4/0_Zuzara_2

New Line.l(r:p100udt90lv-p100ulv92) Units=km Length=0.0164452 bus1=p100udt90lv.1.2 bus2=p100ulv92.1.2 switch=n enabled=y phases=2 Linecode=1P_UG_AL_1/0_Brenau_2

New Line.l(r:p100udm225-p100ulv2519) Units=km Length=0.00902441 bus1=p100udm225.1.2 bus2=p100ulv2519.1.2 switch=n enabled=y phases=2 Linecode=1P_UG_AL_1/0_Brenau_2

New Line.l(r:p100udm225-p100ulv5373) Units=km Length=0.0190075 bus1=p100udm225.1.2 bus2=p100ulv5373.1.2 switch=n enabled=y phases=2 Linecode=1P_UG_AL_1/0_Brenau_2

New Line.l(r:p100udm224-p100ulv1395) Units=km Length=0.0336179 bus1=p100udm224.1.2 bus2=p100ulv1395.1.2 switch=n enabled=y phases=2 Linecode=1P_UG_AL_1/0_Brenau_2

New Line.l(r:p100udm224-p100udm225) Units=km Length=0.00898109 bus1=p100udm225.1.2 bus2=p100udm224.1.2 switch=n enabled=y phases=2 Linecode=1P_UG_AL_1/0_Brenau_2

New Line.l(r:p100udm225-p100udt90lv) Units=km Length=0.00898751 bus1=p100udt90lv.1.2 bus2=p100udm225.1.2 switch=n enabled=y phases=2 Linecode=1P_UG_AL_4/0_Sweetbriar_2

New Line.l(r:p100udm227-p100ulv6846) Units=km Length=0.00878932 bus1=p100udm227.1.2 bus2=p100ulv6846.1.2 switch=n enabled=y phases=2 Linecode=1P_UG_AL_1/0_Brenau_2

New Line.l(r:p100udm227-p100udt90lv) Units=km Length=0.0179686 bus1=p100udt90lv.1.2 bus2=p100udm227.1.2 switch=n enabled=y phases=2 Linecode=1P_UG_AL_1/0_Brenau_2

New Line.l(r:p100udt91lv-p100ulv93) Units=km Length=0.0478542 bus1=p100udt91lv.1.2 bus2=p100ulv93.1.2 switch=n enabled=y phases=2 Linecode=1P_OH_AL_4/0_Zuzara_2

New Line.l(r:p100udt91lv-p100ulv3961) Units=km Length=0.0519746 bus1=p100udt91lv.1.2 bus2=p100ulv3961.1.2 switch=n enabled=y phases=2 Linecode=1P_OH_AL_4/0_Zuzara_2

New Line.l(r:p100udt91lv-p100ulv6851) Units=km Length=0.0709066 bus1=p100udt91lv.1.2 bus2=p100ulv6851.1.2 switch=n enabled=y phases=2 Linecode=1P_OH_AL_4/0_Zuzara_2

New Line.l(r:p100udt91lv-p100ulv7416) Units=km Length=0.0990058 bus1=p100udt91lv.1.2 bus2=p100ulv7416.1.2 switch=n enabled=y phases=2 Linecode=1P_OH_AL_4/0_Zuzara_2

New Line.l(r:p100udt91lv-p100ulv11536) Units=km Length=0.0568319 bus1=p100udt91lv.1.2 bus2=p100ulv11536.1.2 switch=n enabled=y phases=2 Linecode=1P_OH_AL_4/0_Zuzara_2

New Line.l(r:p100udt92lv-p100ulv94) Units=km Length=0.0343492 bus1=p100udt92lv.1.2 bus2=p100ulv94.1.2 switch=n enabled=y phases=2 Linecode=1P_UG_AL_1/0_Brenau_2

New Line.l(r:p100udt92lv-p100ulv745) Units=km Length=0.0343492 bus1=p100udt92lv.1.2 bus2=p100ulv745.1.2 switch=n enabled=y phases=2 Linecode=1P_UG_AL_1/0_Brenau_2

New Line.l(r:p100udt189lv-p100ulv192) Units=km Length=0.02054 bus1=p100udt189lv.1.2 bus2=p100ulv192.1.2 switch=n enabled=y phases=2 Linecode=1P_OH_AL_2/0_Rucina_2

New Line.l(r:p100udt189lv-p100ulv5163) Units=km Length=0.0474761 bus1=p100udt189lv.1.2 bus2=p100ulv5163.1.2 switch=n enabled=y phases=2 Linecode=1P_OH_AL_4/0_Zuzara_2

New Line.l(r:p100udm487-p100ulv7415) Units=km Length=0.015337700000000001 bus1=p100udm487.1.2 bus2=p100ulv7415.1.2 switch=n enabled=y phases=2 Linecode=1P_UG_AL_1/0_Brenau_2

New Line.l(r:p100udm484-p100ulv199) Units=km Length=0.0191084 bus1=p100udm484.1.2 bus2=p100ulv199.1.2 switch=n enabled=y phases=2 Linecode=1P_UG_AL_1/0_Brenau_2

New Line.l(r:p100udm484-p100ulv1710) Units=km Length=0.015334900000000002 bus1=p100udm484.1.2 bus2=p100ulv1710.1.2 switch=n enabled=y phases=2 Linecode=1P_UG_AL_1/0_Brenau_2

New Line.l(r:p100udm484-p100udm487) Units=km Length=0.0175864 bus1=p100udm487.1.2 bus2=p100udm484.1.2 switch=n enabled=y phases=2 Linecode=1P_UG_AL_2/0_Converse_2

New Line.l(r:p100udm487-p100udt196lv) Units=km Length=0.00878659 bus1=p100udt196lv.1.2 bus2=p100udm487.1.2 switch=n enabled=y phases=2 Linecode=1P_UG_AL_4/0_Sweetbriar_2

New Line.l(r:p100udm490-p100ulv11336) Units=km Length=0.0150101 bus1=p100udm490.1.2 bus2=p100ulv11336.1.2 switch=n enabled=y phases=2 Linecode=1P_UG_AL_1/0_Brenau_2

New Line.l(r:p100udm488-p100ulv8131) Units=km Length=0.0126294 bus1=p100udm488.1.2 bus2=p100ulv8131.1.2 switch=n enabled=y phases=2 Linecode=1P_UG_AL_1/0_Brenau_2

New Line.l(r:p100udm486-p100ulv4611) Units=km Length=0.0176959 bus1=p100udm486.1.2 bus2=p100ulv4611.1.2 switch=n enabled=y phases=2 Linecode=1P_UG_AL_1/0_Brenau_2

New Line.l(r:p100udm489-p100ulv9250) Units=km Length=0.0147667 bus1=p100udm489.1.2 bus2=p100ulv9250.1.2 switch=n enabled=y phases=2 Linecode=1P_UG_AL_1/0_Brenau_2

New Line.l(r:p100udm486-p100udm489) Units=km Length=0.0770078 bus1=p100udm486.1.2 bus2=p100udm489.1.2 switch=n enabled=y phases=2 Linecode=1P_UG_AL_1/0_Brenau_2

New Line.l(r:p100udm486-p100udm488) Units=km Length=0.0146699 bus1=p100udm488.1.2 bus2=p100udm486.1.2 switch=n enabled=y phases=2 Linecode=1P_UG_AL_2/0_Converse_2

New Line.l(r:p100udm488-p100udm490) Units=km Length=0.00733336 bus1=p100udm490.1.2 bus2=p100udm488.1.2 switch=n enabled=y phases=2 Linecode=1P_UG_AL_4/0_Sweetbriar_2

New Line.l(r:p100udm490-p100udt196lv) Units=km Length=0.00879318 bus1=p100udt196lv.1.2 bus2=p100udm490.1.2 switch=n enabled=y phases=2 Linecode=1P_UG_AL_4/0_Sweetbriar_2

New Line.l(r:p100udt293lv-p100ulv300) Units=km Length=0.0103402 bus1=p100udt293lv.1.2 bus2=p100ulv300.1.2 switch=n enabled=y phases=2 Linecode=1P_UG_AL_1/0_Brenau_2

New Line.l(r:p100udm733-p100ulv4071) Units=km Length=0.011761 bus1=p100udm733.1.2 bus2=p100ulv4071.1.2 switch=n enabled=y phases=2 Linecode=1P_UG_AL_1/0_Brenau_2

New Line.l(r:p100udm732-p100ulv1068) Units=km Length=0.011657400000000002 bus1=p100udm732.1.2 bus2=p100ulv1068.1.2 switch=n enabled=y phases=2 Linecode=1P_UG_AL_1/0_Brenau_2

New Line.l(r:p100udm732-p100udm733) Units=km Length=0.0527679 bus1=p100udm733.1.2 bus2=p100udm732.1.2 switch=n enabled=y phases=2 Linecode=1P_UG_AL_1/0_Brenau_2

New Line.l(r:p100udm733-p100udt293lv) Units=km Length=0.019795900000000005 bus1=p100udt293lv.1.2 bus2=p100udm733.1.2 switch=n enabled=y phases=2 Linecode=1P_UG_AL_4/0_Sweetbriar_2

New Line.l(r:p100udm734-p100ulv7211) Units=km Length=0.011409200000000001 bus1=p100udm734.1.2 bus2=p100ulv7211.1.2 switch=n enabled=y phases=2 Linecode=1P_UG_AL_1/0_Brenau_2

New Line.l(r:p100udm735-p100ulv11124) Units=km Length=0.0140757 bus1=p100udm735.1.2 bus2=p100ulv11124.1.2 switch=n enabled=y phases=2 Linecode=1P_UG_AL_1/0_Brenau_2

New Line.l(r:p100udm734-p100udm735) Units=km Length=0.0975258 bus1=p100udm734.1.2 bus2=p100udm735.1.2 switch=n enabled=y phases=2 Linecode=1P_UG_AL_1/0_Brenau_2

New Line.l(r:p100udm734-p100udt293lv) Units=km Length=0.00990112 bus1=p100udt293lv.1.2 bus2=p100udm734.1.2 switch=n enabled=y phases=2 Linecode=1P_UG_AL_1/0_Brenau_2

New Line.l(r:p100udm738-p100ulv302) Units=km Length=0.019439 bus1=p100udm738.1.2 bus2=p100ulv302.1.2 switch=n enabled=y phases=2 Linecode=1P_UG_AL_1/0_Brenau_2

New Line.l(r:p100udm738-p100udt295lv) Units=km Length=0.0195744 bus1=p100udt295lv.1.2 bus2=p100udm738.1.2 switch=n enabled=y phases=2 Linecode=1P_UG_AL_1/0_Brenau_2

New Line.l(r:p100udm739-p100ulv7413) Units=km Length=0.00576217 bus1=p100udm739.1.2 bus2=p100ulv7413.1.2 switch=n enabled=y phases=2 Linecode=1P_UG_AL_1/0_Brenau_2

New Line.l(r:p100udm739-p100udt295lv) Units=km Length=0.0395885 bus1=p100udt295lv.1.2 bus2=p100udm739.1.2 switch=n enabled=y phases=2 Linecode=1P_UG_AL_1/0_Brenau_2

New Line.l(r:p100udt402lv-p100ulv10876) Units=km Length=0.014335600000000002 bus1=p100udt402lv.1.2 bus2=p100ulv10876.1.2 switch=n enabled=y phases=2 Linecode=1P_UG_AL_1/0_Brenau_2

New Line.l(r:p100udm996-p100ulv413) Units=km Length=0.0142836 bus1=p100udm996.1.2 bus2=p100ulv413.1.2 switch=n enabled=y phases=2 Linecode=1P_UG_AL_1/0_Brenau_2

New Line.l(r:p100udm996-p100ulv2812) Units=km Length=0.0131337 bus1=p100udm996.1.2 bus2=p100ulv2812.1.2 switch=n enabled=y phases=2 Linecode=1P_UG_AL_1/0_Brenau_2

New Line.l(r:p100udm996-p100udt402lv) Units=km Length=0.0188727 bus1=p100udt402lv.1.2 bus2=p100udm996.1.2 switch=n enabled=y phases=2 Linecode=1P_UG_AL_4/0_Sweetbriar_2

New Line.l(r:p100udm999-p100ulv7766) Units=km Length=0.0137738 bus1=p100udm999.1.2 bus2=p100ulv7766.1.2 switch=n enabled=y phases=2 Linecode=1P_UG_AL_1/0_Brenau_2

New Line.l(r:p100udm999-p100ulv9997) Units=km Length=0.01328 bus1=p100udm999.1.2 bus2=p100ulv9997.1.2 switch=n enabled=y phases=2 Linecode=1P_UG_AL_1/0_Brenau_2

New Line.l(r:p100udm998-p100ulv7097) Units=km Length=0.0146779 bus1=p100udm998.1.2 bus2=p100ulv7097.1.2 switch=n enabled=y phases=2 Linecode=1P_UG_AL_1/0_Brenau_2

New Line.l(r:p100udm998-p100udm999) Units=km Length=0.028312200000000003 bus1=p100udm999.1.2 bus2=p100udm998.1.2 switch=n enabled=y phases=2 Linecode=1P_UG_AL_1/0_Brenau_2

New Line.l(r:p100udm999-p100udt402lv) Units=km Length=0.00943952 bus1=p100udt402lv.1.2 bus2=p100udm999.1.2 switch=n enabled=y phases=2 Linecode=1P_UG_AL_4/0_Sweetbriar_2

New Line.l(r:p100udm1005-p100ulv9779) Units=km Length=0.029580500000000003 bus1=p100udm1005.1.2 bus2=p100ulv9779.1.2 switch=n enabled=y phases=2 Linecode=1P_UG_AL_1/0_Brenau_2

New Line.l(r:p100udm1003-p100ulv525) Units=km Length=0.0272616 bus1=p100udm1003.1.2 bus2=p100ulv525.1.2 switch=n enabled=y phases=2 Linecode=1P_UG_AL_2/0_Converse_2

New Line.l(r:p100udm1003-p100ulv6043) Units=km Length=0.0613823 bus1=p100udm1003.1.2 bus2=p100ulv6043.1.2 switch=n enabled=y phases=2 Linecode=1P_UG_AL_1/0_Brenau_2

New Line.l(r:p100udm1003-p100udm1005) Units=km Length=0.0296642 bus1=p100udm1005.1.2 bus2=p100udm1003.1.2 switch=n enabled=y phases=2 Linecode=1P_UG_AL_4/0_Sweetbriar_2

New Line.l(r:p100udm1005-p100udt403lv) Units=km Length=0.00988921 bus1=p100udt403lv.1.2 bus2=p100udm1005.1.2 switch=n enabled=y phases=2 Linecode=1P_UG_AL_4/0_Sweetbriar_2

New Line.l(r:p100udm1006-p100ulv9999) Units=km Length=0.0254918 bus1=p100udm1006.1.2 bus2=p100ulv9999.1.2 switch=n enabled=y phases=2 Linecode=1P_UG_AL_1/0_Brenau_2

New Line.l(r:p100udm1002-p100ulv414) Units=km Length=0.0422461 bus1=p100udm1002.1.2 bus2=p100ulv414.1.2 switch=n enabled=y phases=2 Linecode=1P_UG_AL_1/0_Brenau_2

New Line.l(r:p100udm1002-p100udm1006) Units=km Length=0.0392992 bus1=p100udm1006.1.2 bus2=p100udm1002.1.2 switch=n enabled=y phases=2 Linecode=1P_UG_AL_1/0_Brenau_2

New Line.l(r:p100udm1006-p100udt403lv) Units=km Length=0.019775 bus1=p100udt403lv.1.2 bus2=p100udm1006.1.2 switch=n enabled=y phases=2 Linecode=1P_UG_AL_4/0_Sweetbriar_2

New Line.l(r:p100udt405lv-p100ulv416) Units=km Length=0.0110486 bus1=p100udt405lv.1.2 bus2=p100ulv416.1.2 switch=n enabled=y phases=2 Linecode=1P_UG_AL_1/0_Brenau_2

New Line.l(r:p100udm1012-p100ulv418) Units=km Length=0.0276049 bus1=p100udm1012.1.2 bus2=p100ulv418.1.2 switch=n enabled=y phases=2 Linecode=1P_UG_AL_1/0_Brenau_2

New Line.l(r:p100udm1012-p100udt407lv) Units=km Length=0.0305859 bus1=p100udt407lv.1.2 bus2=p100udm1012.1.2 switch=n enabled=y phases=2 Linecode=1P_UG_AL_1/0_Brenau_2

New Line.l(r:p100udm1013-p100ulv870) Units=km Length=0.0163219 bus1=p100udm1013.1.2 bus2=p100ulv870.1.2 switch=n enabled=y phases=2 Linecode=1P_UG_AL_4/0_Sweetbriar_2

New Line.l(r:p100udm1013-p100udt407lv) Units=km Length=0.0279799 bus1=p100udt407lv.1.2 bus2=p100udm1013.1.2 switch=n enabled=y phases=2 Linecode=1P_UG_AL_4/0_Sweetbriar_2

New Line.l(r:p100udt504lv-p100ulv521) Units=km Length=0.0483901 bus1=p100udt504lv.1.2 bus2=p100ulv521.1.2 switch=n enabled=y phases=2 Linecode=1P_OH_AL_4/0_Zuzara_2

New Line.l(r:p100udt504lv-p100ulv9112) Units=km Length=0.0483901 bus1=p100udt504lv.1.2 bus2=p100ulv9112.1.2 switch=n enabled=y phases=2 Linecode=1P_OH_AL_4/0_Zuzara_2

New Line.l(r:p100udm1222-p100ulv5024) Units=km Length=0.0172504 bus1=p100udm1222.1.2 bus2=p100ulv5024.1.2 switch=n enabled=y phases=2 Linecode=1P_UG_AL_1/0_Brenau_2

New Line.l(r:p100udm1222-p100ulv9354) Units=km Length=0.0277774 bus1=p100udm1222.1.2 bus2=p100ulv9354.1.2 switch=n enabled=y phases=2 Linecode=1P_UG_AL_1/0_Brenau_2

New Line.l(r:p100udm1226-p100ulv10765) Units=km Length=0.00973296 bus1=p100udm1226.1.2 bus2=p100ulv10765.1.2 switch=n enabled=y phases=2 Linecode=1P_UG_AL_1/0_Brenau_2

New Line.l(r:p100udm1222-p100udm1226) Units=km Length=0.0137781 bus1=p100udm1222.1.2 bus2=p100udm1226.1.2 switch=n enabled=y phases=2 Linecode=1P_UG_AL_1/0_Brenau_2

New Line.l(r:p100udm1222-p100udt506lv) Units=km Length=0.026407400000000004 bus1=p100udt506lv.1.2 bus2=p100udm1222.1.2 switch=n enabled=y phases=2 Linecode=1P_UG_AL_4/0_Sweetbriar_2

New Line.l(r:p100udm1223-p100ulv6492) Units=km Length=0.00917031 bus1=p100udm1223.1.2 bus2=p100ulv6492.1.2 switch=n enabled=y phases=2 Linecode=1P_UG_AL_1/0_Brenau_2

New Line.l(r:p100udm1223-p100ulv6610) Units=km Length=0.0162262 bus1=p100udm1223.1.2 bus2=p100ulv6610.1.2 switch=n enabled=y phases=2 Linecode=1P_UG_AL_1/0_Brenau_2

New Line.l(r:p100udm1221-p100ulv523) Units=km Length=0.0124717 bus1=p100udm1221.1.2 bus2=p100ulv523.1.2 switch=n enabled=y phases=2 Linecode=1P_UG_AL_1/0_Brenau_2

New Line.l(r:p100udm1221-p100udm1223) Units=km Length=0.0289907 bus1=p100udm1223.1.2 bus2=p100udm1221.1.2 switch=n enabled=y phases=2 Linecode=1P_UG_AL_1/0_Brenau_2

New Line.l(r:p100udm1223-p100udt506lv) Units=km Length=0.0193197 bus1=p100udt506lv.1.2 bus2=p100udm1223.1.2 switch=n enabled=y phases=2 Linecode=1P_UG_AL_4/0_Sweetbriar_2

New Line.l(r:p100udm1229-p100ulv4073) Units=km Length=0.00302134 bus1=p100udm1229.1.2 bus2=p100ulv4073.1.2 switch=n enabled=y phases=2 Linecode=1P_UG_AL_1/0_Brenau_2

New Line.l(r:p100udm1229-p100udt507lv) Units=km Length=0.0325474 bus1=p100udt507lv.1.2 bus2=p100udm1229.1.2 switch=n enabled=y phases=2 Linecode=1P_UG_AL_1/0_Brenau_2

New Line.l(r:p100udm1230-p100ulv11333) Units=km Length=0.0340366 bus1=p100udm1230.1.2 bus2=p100ulv11333.1.2 switch=n enabled=y phases=2 Linecode=1P_UG_AL_1/0_Brenau_2

New Line.l(r:p100udm1227-p100ulv524) Units=km Length=0.0157961 bus1=p100udm1227.1.2 bus2=p100ulv524.1.2 switch=n enabled=y phases=2 Linecode=1P_UG_AL_1/0_Brenau_2

New Line.l(r:p100udm1227-p100ulv1497) Units=km Length=0.0145005 bus1=p100udm1227.1.2 bus2=p100ulv1497.1.2 switch=n enabled=y phases=2 Linecode=1P_UG_AL_1/0_Brenau_2

New Line.l(r:p100udm1227-p100udm1230) Units=km Length=0.00662759 bus1=p100udm1230.1.2 bus2=p100udm1227.1.2 switch=n enabled=y phases=2 Linecode=1P_UG_AL_4/0_Sweetbriar_2

New Line.l(r:p100udm1230-p100udt507lv) Units=km Length=0.008019090000000001 bus1=p100udt507lv.1.2 bus2=p100udm1230.1.2 switch=n enabled=y phases=2 Linecode=1P_UG_AL_4/0_Sweetbriar_2

New Line.l(r:p100udt510lv-p100ulv528) Units=km Length=0.0141492 bus1=p100udt510lv.1.2 bus2=p100ulv528.1.2 switch=n enabled=y phases=2 Linecode=1P_UG_AL_1/0_Brenau_2

New Line.l(r:p100udm1239-p100ulv9910) Units=km Length=0.0172664 bus1=p100udm1239.1.2 bus2=p100ulv9910.1.2 switch=n enabled=y phases=2 Linecode=1P_UG_AL_1/0_Brenau_2

New Line.l(r:p100udm1239-p100udt510lv) Units=km Length=0.00975862 bus1=p100udt510lv.1.2 bus2=p100udm1239.1.2 switch=n enabled=y phases=2 Linecode=1P_UG_AL_1/0_Brenau_2

New Line.l(r:p100udm1240-p100ulv529) Units=km Length=0.0120375 bus1=p100udm1240.1.2 bus2=p100ulv529.1.2 switch=n enabled=y phases=2 Linecode=1P_UG_AL_1/0_Brenau_2

New Line.l(r:p100udm1240-p100udt511lv) Units=km Length=0.018660200000000002 bus1=p100udt511lv.1.2 bus2=p100udm1240.1.2 switch=n enabled=y phases=2 Linecode=1P_UG_AL_1/0_Brenau_2

New Line.l(r:p100udm1241-p100ulv11338) Units=km Length=0.0271458 bus1=p100udm1241.1.2 bus2=p100ulv11338.1.2 switch=n enabled=y phases=2 Linecode=1P_UG_AL_1/0_Brenau_2

New Line.l(r:p100udm1241-p100udt511lv) Units=km Length=0.0186667 bus1=p100udt511lv.1.2 bus2=p100udm1241.1.2 switch=n enabled=y phases=2 Linecode=1P_UG_AL_1/0_Brenau_2

New Line.l(r:p100udt701lv-p100ulv735) Units=km Length=0.0161469 bus1=p100udt701lv.1.2 bus2=p100ulv735.1.2 switch=n enabled=y phases=2 Linecode=1P_UG_AL_1/0_Brenau_2

New Line.l(r:p100udm1663-p100ulv6172) Units=km Length=0.0155213 bus1=p100udm1663.1.2 bus2=p100ulv6172.1.2 switch=n enabled=y phases=2 Linecode=1P_UG_AL_1/0_Brenau_2

New Line.l(r:p100udm1663-p100ulv10662) Units=km Length=0.0139077 bus1=p100udm1663.1.2 bus2=p100ulv10662.1.2 switch=n enabled=y phases=2 Linecode=1P_UG_AL_1/0_Brenau_2

New Line.l(r:p100udm1663-p100udt701lv) Units=km Length=0.00925032 bus1=p100udt701lv.1.2 bus2=p100udm1663.1.2 switch=n enabled=y phases=2 Linecode=1P_UG_AL_4/0_Sweetbriar_2

New Line.l(r:p100udm1664-p100ulv9239) Units=km Length=0.0107583 bus1=p100udm1664.1.2 bus2=p100ulv9239.1.2 switch=n enabled=y phases=2 Linecode=1P_UG_AL_1/0_Brenau_2

New Line.l(r:p100udm1664-p100udt701lv) Units=km Length=0.00925985 bus1=p100udt701lv.1.2 bus2=p100udm1664.1.2 switch=n enabled=y phases=2 Linecode=1P_UG_AL_1/0_Brenau_2

New Line.l(r:p100udt702lv-p100ulv9241) Units=km Length=0.044325 bus1=p100udt702lv.1.2 bus2=p100ulv9241.1.2 switch=n enabled=y phases=2 Linecode=1P_OH_AL_4/0_Zuzara_2

New Line.l(r:p100udm1666-p100ulv736) Units=km Length=0.0302594 bus1=p100udm1666.1.2 bus2=p100ulv736.1.2 switch=n enabled=y phases=2 Linecode=1P_OH_AL_4/0_Zuzara_2

New Line.l(r:p100udm1666-p100udt702lv) Units=km Length=0.0191993 bus1=p100udt702lv.1.2 bus2=p100udm1666.1.2 switch=n enabled=y phases=2 Linecode=1P_OH_AL_2/0_Rucina_2

New Line.l(r:p100udm1668-p100ulv9998) Units=km Length=0.0319159 bus1=p100udm1668.1.2 bus2=p100ulv9998.1.2 switch=n enabled=y phases=2 Linecode=1P_OH_AL_4/0_Zuzara_2

New Line.l(r:p100udm1668-p100udt702lv) Units=km Length=0.0192005 bus1=p100udt702lv.1.2 bus2=p100udm1668.1.2 switch=n enabled=y phases=2 Linecode=1P_OH_AL_2/0_Rucina_2

New Line.l(r:p100udm1678-p100ulv742) Units=km Length=0.0141371 bus1=p100udm1678.1.2 bus2=p100ulv742.1.2 switch=n enabled=y phases=2 Linecode=1P_UG_AL_1/0_Brenau_2

New Line.l(r:p100udm1680-p100ulv7102) Units=km Length=0.0112004 bus1=p100udm1680.1.2 bus2=p100ulv7102.1.2 switch=n enabled=y phases=2 Linecode=1P_UG_AL_1/0_Brenau_2

New Line.l(r:p100udm1678-p100udm1680) Units=km Length=0.0334384 bus1=p100udm1678.1.2 bus2=p100udm1680.1.2 switch=n enabled=y phases=2 Linecode=1P_UG_AL_1/0_Brenau_2

New Line.l(r:p100udm1678-p100udt708lv) Units=km Length=0.006028 bus1=p100udt708lv.1.2 bus2=p100udm1678.1.2 switch=n enabled=y phases=2 Linecode=1P_UG_AL_4/0_Sweetbriar_2

New Line.l(r:p100udm1681-p100ulv7103) Units=km Length=0.0125813 bus1=p100udm1681.1.2 bus2=p100ulv7103.1.2 switch=n enabled=y phases=2 Linecode=1P_UG_AL_1/0_Brenau_2

New Line.l(r:p100udm1679-p100ulv6722) Units=km Length=0.0105368 bus1=p100udm1679.1.2 bus2=p100ulv6722.1.2 switch=n enabled=y phases=2 Linecode=1P_UG_AL_1/0_Brenau_2

New Line.l(r:p100udm1679-p100udm1681) Units=km Length=0.0061336 bus1=p100udm1681.1.2 bus2=p100udm1679.1.2 switch=n enabled=y phases=2 Linecode=1P_UG_AL_1/0_Brenau_2

New Line.l(r:p100udm1681-p100udt708lv) Units=km Length=0.0101415 bus1=p100udt708lv.1.2 bus2=p100udm1681.1.2 switch=n enabled=y phases=2 Linecode=1P_UG_AL_2/0_Converse_2

New Line.l(r:p100udm1682-p100ulv743) Units=km Length=0.0354235 bus1=p100udm1682.1.2 bus2=p100ulv743.1.2 switch=n enabled=y phases=2 Linecode=1P_OH_AL_4/0_Zuzara_2

New Line.l(r:p100udm1682-p100ulv11535) Units=km Length=0.0164207 bus1=p100udm1682.1.2 bus2=p100ulv11535.1.2 switch=n enabled=y phases=2 Linecode=1P_OH_AL_2/0_Rucina_2

New Line.l(r:p100udm1682-p100udt709lv) Units=km Length=0.0192184 bus1=p100udt709lv.1.2 bus2=p100udm1682.1.2 switch=n enabled=y phases=2 Linecode=1P_OH_AL_2/0_Rucina_2

New Line.l(r:p100udm1683-p100ulv7771) Units=km Length=0.0301847 bus1=p100udm1683.1.2 bus2=p100ulv7771.1.2 switch=n enabled=y phases=2 Linecode=1P_OH_AL_4/0_Zuzara_2

New Line.l(r:p100udm1683-p100udt709lv) Units=km Length=0.0192184 bus1=p100udt709lv.1.2 bus2=p100udm1683.1.2 switch=n enabled=y phases=2 Linecode=1P_OH_AL_2/0_Rucina_2

New Line.l(r:p100udt710lv-p100ulv744) Units=km Length=0.0456991 bus1=p100udt710lv.1.2 bus2=p100ulv744.1.2 switch=n enabled=y phases=2 Linecode=1P_OH_AL_4/0_Zuzara_2

New Line.l(r:p100udt808lv-p100ulv858) Units=km Length=0.06611980000000002 bus1=p100udt808lv.1.2 bus2=p100ulv858.1.2 switch=n enabled=y phases=2 Linecode=1P_UG_AL_1/0_Brenau_2

New Line.l(r:p100udm1906-p100ulv861) Units=km Length=0.0256323 bus1=p100udm1906.1.2 bus2=p100ulv861.1.2 switch=n enabled=y phases=2 Linecode=1P_UG_AL_1/0_Brenau_2

New Line.l(r:p100udm1906-p100udt810lv) Units=km Length=0.009307010000000001 bus1=p100udt810lv.1.2 bus2=p100udm1906.1.2 switch=n enabled=y phases=2 Linecode=1P_UG_AL_1/0_Brenau_2

New Line.l(r:p100udm1907-p100ulv6719) Units=km Length=0.0148175 bus1=p100udm1907.1.2 bus2=p100ulv6719.1.2 switch=n enabled=y phases=2 Linecode=1P_UG_AL_1/0_Brenau_2

New Line.l(r:p100udm1907-p100udt810lv) Units=km Length=0.00931469 bus1=p100udt810lv.1.2 bus2=p100udm1907.1.2 switch=n enabled=y phases=2 Linecode=1P_UG_AL_1/0_Brenau_2

New Line.l(r:p100udt811lv-p100ulv11334) Units=km Length=0.0198846 bus1=p100udt811lv.1.2 bus2=p100ulv11334.1.2 switch=n enabled=y phases=2 Linecode=1P_UG_AL_1/0_Brenau_2

New Line.l(r:p100udm1909-p100ulv1612) Units=km Length=0.0251459 bus1=p100udm1909.1.2 bus2=p100ulv1612.1.2 switch=n enabled=y phases=2 Linecode=1P_UG_AL_1/0_Brenau_2

New Line.l(r:p100udm1909-p100udt811lv) Units=km Length=0.04782 bus1=p100udt811lv.1.2 bus2=p100udm1909.1.2 switch=n enabled=y phases=2 Linecode=1P_UG_AL_1/0_Brenau_2

New Line.l(r:p100udm1910-p100ulv9446) Units=km Length=0.0110045 bus1=p100udm1910.1.2 bus2=p100ulv9446.1.2 switch=n enabled=y phases=2 Linecode=1P_UG_AL_1/0_Brenau_2

New Line.l(r:p100udm1908-p100ulv862) Units=km Length=0.023804400000000003 bus1=p100udm1908.1.2 bus2=p100ulv862.1.2 switch=n enabled=y phases=2 Linecode=1P_UG_AL_1/0_Brenau_2

New Line.l(r:p100udm1908-p100udm1910) Units=km Length=0.0286786 bus1=p100udm1910.1.2 bus2=p100udm1908.1.2 switch=n enabled=y phases=2 Linecode=1P_UG_AL_1/0_Brenau_2

New Line.l(r:p100udm1910-p100udt811lv) Units=km Length=0.0095659 bus1=p100udt811lv.1.2 bus2=p100udm1910.1.2 switch=n enabled=y phases=2 Linecode=1P_UG_AL_4/0_Sweetbriar_2

New Line.l(r:p100udm1912-p100ulv863) Units=km Length=0.009145680000000002 bus1=p100udm1912.1.2 bus2=p100ulv863.1.2 switch=n enabled=y phases=2 Linecode=1P_UG_AL_1/0_Brenau_2

New Line.l(r:p100udm1912-p100udt812lv) Units=km Length=0.011288900000000001 bus1=p100udt812lv.1.2 bus2=p100udm1912.1.2 switch=n enabled=y phases=2 Linecode=1P_UG_AL_1/0_Brenau_2

New Line.l(r:p100udm1913-p100ulv5599) Units=km Length=0.00612944 bus1=p100udm1913.1.2 bus2=p100ulv5599.1.2 switch=n enabled=y phases=2 Linecode=1P_UG_AL_1/0_Brenau_2

New Line.l(r:p100udm1913-p100udt812lv) Units=km Length=0.00930484 bus1=p100udt812lv.1.2 bus2=p100udm1913.1.2 switch=n enabled=y phases=2 Linecode=1P_UG_AL_1/0_Brenau_2

New Line.l(r:p100udm1914-p100ulv864) Units=km Length=0.015536600000000001 bus1=p100udm1914.1.2 bus2=p100ulv864.1.2 switch=n enabled=y phases=2 Linecode=1P_OH_AL_2/0_Rucina_2

New Line.l(r:p100udm1914-p100udt813lv) Units=km Length=0.0170855 bus1=p100udt813lv.1.2 bus2=p100udm1914.1.2 switch=n enabled=y phases=2 Linecode=1P_OH_AL_2/0_Rucina_2

New Line.l(r:p100udm1915-p100ulv4074) Units=km Length=0.0176114 bus1=p100udm1915.1.2 bus2=p100ulv4074.1.2 switch=n enabled=y phases=2 Linecode=1P_OH_AL_2/0_Rucina_2

New Line.l(r:p100udm1915-p100udt813lv) Units=km Length=0.0170778 bus1=p100udt813lv.1.2 bus2=p100udm1915.1.2 switch=n enabled=y phases=2 Linecode=1P_OH_AL_2/0_Rucina_2

New Line.l(r:p100udm1916-p100ulv865) Units=km Length=0.0401954 bus1=p100udm1916.1.2 bus2=p100ulv865.1.2 switch=n enabled=y phases=2 Linecode=1P_OH_AL_4/0_Zuzara_2

New Line.l(r:p100udm1916-p100udt814lv) Units=km Length=0.038337 bus1=p100udt814lv.1.2 bus2=p100udm1916.1.2 switch=n enabled=y phases=2 Linecode=1P_OH_AL_4/0_Zuzara_2

New Line.l(r:p100udm1917-p100ulv4286) Units=km Length=0.0258937 bus1=p100udm1917.1.2 bus2=p100ulv4286.1.2 switch=n enabled=y phases=2 Linecode=1P_OH_AL_2/0_Rucina_2

New Line.l(r:p100udm1917-p100udt814lv) Units=km Length=0.0191762 bus1=p100udt814lv.1.2 bus2=p100udm1917.1.2 switch=n enabled=y phases=2 Linecode=1P_OH_AL_2/0_Rucina_2

New Line.l(r:p100udm1918-p100ulv866) Units=km Length=0.031218 bus1=p100udm1918.1.2 bus2=p100ulv866.1.2 switch=n enabled=y phases=2 Linecode=1P_OH_AL_4/0_Zuzara_2

New Line.l(r:p100udm1918-p100udt815lv) Units=km Length=0.025052900000000003 bus1=p100udt815lv.1.2 bus2=p100udm1918.1.2 switch=n enabled=y phases=2 Linecode=1P_OH_AL_2/0_Rucina_2

New Line.l(r:p100udm1919-p100ulv1919) Units=km Length=0.0433254 bus1=p100udm1919.1.2 bus2=p100ulv1919.1.2 switch=n enabled=y phases=2 Linecode=1P_OH_AL_4/0_Zuzara_2

New Line.l(r:p100udm1919-p100udt815lv) Units=km Length=0.015334400000000002 bus1=p100udt815lv.1.2 bus2=p100udm1919.1.2 switch=n enabled=y phases=2 Linecode=1P_OH_AL_2/0_Rucina_2

New Line.l(r:p100udt816lv-p100ulv867) Units=km Length=0.00458093 bus1=p100udt816lv.1.2 bus2=p100ulv867.1.2 switch=n enabled=y phases=2 Linecode=1P_OH_AL_2/0_Rucina_2

New Line.l(r:p100udm1921-p100ulv7313) Units=km Length=0.00800066 bus1=p100udm1921.1.2 bus2=p100ulv7313.1.2 switch=n enabled=y phases=2 Linecode=1P_OH_AL_2/0_Rucina_2

New Line.l(r:p100udm1921-p100udt816lv) Units=km Length=0.0172942 bus1=p100udt816lv.1.2 bus2=p100udm1921.1.2 switch=n enabled=y phases=2 Linecode=1P_OH_AL_2/0_Rucina_2

New Line.l(r:p100udt819lv-p100ulv871) Units=km Length=0.0156718 bus1=p100udt819lv.1.2 bus2=p100ulv871.1.2 switch=n enabled=y phases=2 Linecode=1P_UG_AL_1/0_Brenau_2

New Line.l(r:p100udm1929-p100ulv2135) Units=km Length=0.0130769 bus1=p100udm1929.1.2 bus2=p100ulv2135.1.2 switch=n enabled=y phases=2 Linecode=1P_UG_AL_1/0_Brenau_2

New Line.l(r:p100udm1929-p100udt819lv) Units=km Length=0.00994453 bus1=p100udt819lv.1.2 bus2=p100udm1929.1.2 switch=n enabled=y phases=2 Linecode=1P_UG_AL_1/0_Brenau_2

New Line.l(r:p100udt820lv-p100ulv872) Units=km Length=0.0931297 bus1=p100udt820lv.1.2 bus2=p100ulv872.1.2 switch=n enabled=y phases=2 Linecode=1P_UG_AL_1/0_Brenau_2

New Line.l(r:p100udt899lv-p100ulv958) Units=km Length=0.01364 bus1=p100udt899lv.1.2 bus2=p100ulv958.1.2 switch=n enabled=y phases=2 Linecode=1P_OH_AL_2/0_Rucina_2

New Line.l(r:p100udt899lv-p100ulv10870) Units=km Length=0.01364 bus1=p100udt899lv.1.2 bus2=p100ulv10870.1.2 switch=n enabled=y phases=2 Linecode=1P_OH_AL_2/0_Rucina_2

New Line.l(r:p100udm2109-p100ulv963) Units=km Length=0.0155446 bus1=p100udm2109.1.2 bus2=p100ulv963.1.2 switch=n enabled=y phases=2 Linecode=1P_UG_AL_1/0_Brenau_2

New Line.l(r:p100udm2109-p100udt903lv) Units=km Length=0.0197821 bus1=p100udt903lv.1.2 bus2=p100udm2109.1.2 switch=n enabled=y phases=2 Linecode=1P_UG_AL_1/0_Brenau_2

New Line.l(r:p100udm2110-p100ulv4603) Units=km Length=0.0165716 bus1=p100udm2110.1.2 bus2=p100ulv4603.1.2 switch=n enabled=y phases=2 Linecode=1P_UG_AL_1/0_Brenau_2

New Line.l(r:p100udm2110-p100udt903lv) Units=km Length=0.0179268 bus1=p100udt903lv.1.2 bus2=p100udm2110.1.2 switch=n enabled=y phases=2 Linecode=1P_UG_AL_1/0_Brenau_2

New Line.l(r:p100udt996lv-p100ulv4068) Units=km Length=0.024865 bus1=p100udt996lv.1.2 bus2=p100ulv4068.1.2 switch=n enabled=y phases=2 Linecode=1P_OH_AL_2/0_Rucina_2

New Line.l(r:p100udt996lv-p100ulv5593) Units=km Length=0.0730748 bus1=p100udt996lv.1.2 bus2=p100ulv5593.1.2 switch=n enabled=y phases=2 Linecode=1P_OH_AL_4/0_Zuzara_2

New Line.l(r:p100udm2337-p100ulv7874) Units=km Length=0.0713017 bus1=p100udm2337.1.2 bus2=p100ulv7874.1.2 switch=n enabled=y phases=2 Linecode=1P_OH_AL_4/0_Zuzara_2

New Line.l(r:p100udm2337-p100udt996lv) Units=km Length=0.0195756 bus1=p100udt996lv.1.2 bus2=p100udm2337.1.2 switch=n enabled=y phases=2 Linecode=1P_OH_AL_2/0_Rucina_2

New Line.l(r:p100udm2338-p100ulv9903) Units=km Length=0.072718 bus1=p100udm2338.1.2 bus2=p100ulv9903.1.2 switch=n enabled=y phases=2 Linecode=1P_OH_AL_4/0_Zuzara_2

New Line.l(r:p100udm2334-p100ulv1067) Units=km Length=0.0337331 bus1=p100udm2334.1.2 bus2=p100ulv1067.1.2 switch=n enabled=y phases=2 Linecode=1P_OH_AL_4/0_Zuzara_2

New Line.l(r:p100udm2334-p100udm2338) Units=km Length=0.0195832 bus1=p100udm2338.1.2 bus2=p100udm2334.1.2 switch=n enabled=y phases=2 Linecode=1P_OH_AL_2/0_Rucina_2

New Line.l(r:p100udm2338-p100udt996lv) Units=km Length=0.0195692 bus1=p100udt996lv.1.2 bus2=p100udm2338.1.2 switch=n enabled=y phases=2 Linecode=1P_OH_AL_2/0_Rucina_2

New Line.l(r:p100udm2341-p100ulv1072) Units=km Length=0.0143083 bus1=p100udm2341.1.2 bus2=p100ulv1072.1.2 switch=n enabled=y phases=2 Linecode=1P_UG_AL_1/0_Brenau_2

New Line.l(r:p100udm2341-p100ulv5954) Units=km Length=0.0184697 bus1=p100udm2341.1.2 bus2=p100ulv5954.1.2 switch=n enabled=y phases=2 Linecode=1P_UG_AL_1/0_Brenau_2

New Line.l(r:p100udm2341-p100udt999lv) Units=km Length=0.0171379 bus1=p100udt999lv.1.2 bus2=p100udm2341.1.2 switch=n enabled=y phases=2 Linecode=1P_UG_AL_4/0_Sweetbriar_2

New Line.l(r:p100udm2342-p100ulv2418) Units=km Length=0.0185913 bus1=p100udm2342.1.2 bus2=p100ulv2418.1.2 switch=n enabled=y phases=2 Linecode=1P_UG_AL_1/0_Brenau_2

New Line.l(r:p100udm2343-p100ulv4717) Units=km Length=0.0137698 bus1=p100udm2343.1.2 bus2=p100ulv4717.1.2 switch=n enabled=y phases=2 Linecode=1P_UG_AL_1/0_Brenau_2

New Line.l(r:p100udm2342-p100udm2343) Units=km Length=0.008639040000000002 bus1=p100udm2342.1.2 bus2=p100udm2343.1.2 switch=n enabled=y phases=2 Linecode=1P_UG_AL_1/0_Brenau_2

New Line.l(r:p100udm2342-p100udt999lv) Units=km Length=0.00863727 bus1=p100udt999lv.1.2 bus2=p100udm2342.1.2 switch=n enabled=y phases=2 Linecode=1P_UG_AL_2/0_Converse_2

New Line.l(r:p100udt1000lv-p100ulv1073) Units=km Length=0.001 bus1=p100udt1000lv.1.2 bus2=p100ulv1073.1.2 switch=n enabled=y phases=2 Linecode=1P_OH_AL_4_Periwinkle_2

New Line.l(r:p100udt1065lv-p100ulv1153) Units=km Length=0.0204323 bus1=p100udt1065lv.1.2 bus2=p100ulv1153.1.2 switch=n enabled=y phases=2 Linecode=1P_OH_AL_2/0_Rucina_2

New Line.l(r:p100udt1069lv-p100ulv1158) Units=km Length=0.001 bus1=p100udt1069lv.1.2 bus2=p100ulv1158.1.2 switch=n enabled=y phases=2 Linecode=1P_OH_AL_4_Periwinkle_2

New Line.l(r:p100udt1077lv-p100ulv1167) Units=km Length=0.001 bus1=p100udt1077lv.1.2 bus2=p100ulv1167.1.2 switch=n enabled=y phases=2 Linecode=1P_UG_AL_1/0_Brenau_2

New Line.l(r:p100udt1167lv-p100ulv1271) Units=km Length=0.0127892 bus1=p100udt1167lv.1.2 bus2=p100ulv1271.1.2 switch=n enabled=y phases=2 Linecode=1P_OH_AL_2/0_Rucina_2

New Line.l(r:p100udt1167lv-p100ulv2411) Units=km Length=0.0099286 bus1=p100udt1167lv.1.2 bus2=p100ulv2411.1.2 switch=n enabled=y phases=2 Linecode=1P_OH_AL_2/0_Rucina_2

New Line.l(r:p100udt1267lv-p100ulv1381) Units=km Length=0.0608201 bus1=p100udt1267lv.1.2 bus2=p100ulv1381.1.2 switch=n enabled=y phases=2 Linecode=1P_OH_AL_4/0_Zuzara_2

New Line.l(r:p100udt1273lv-p100ulv1388) Units=km Length=0.0392659 bus1=p100udt1273lv.1.2 bus2=p100ulv1388.1.2 switch=n enabled=y phases=2 Linecode=1P_OH_AL_4/0_Zuzara_2

New Line.l(r:p100udt1273lv-p100ulv1607) Units=km Length=0.0109405 bus1=p100udt1273lv.1.2 bus2=p100ulv1607.1.2 switch=n enabled=y phases=2 Linecode=1P_OH_AL_2/0_Rucina_2

New Line.l(r:p100udt1273lv-p100ulv2717) Units=km Length=0.0206476 bus1=p100udt1273lv.1.2 bus2=p100ulv2717.1.2 switch=n enabled=y phases=2 Linecode=1P_OH_AL_2/0_Rucina_2

New Line.l(r:p100udt1273lv-p100ulv4490) Units=km Length=0.0319769 bus1=p100udt1273lv.1.2 bus2=p100ulv4490.1.2 switch=n enabled=y phases=2 Linecode=1P_OH_AL_4/0_Zuzara_2

New Line.l(r:p100udt1273lv-p100ulv11121) Units=km Length=0.017240400000000003 bus1=p100udt1273lv.1.2 bus2=p100ulv11121.1.2 switch=n enabled=y phases=2 Linecode=1P_OH_AL_2/0_Rucina_2

New Line.l(r:p100udm2984-p100ulv1392) Units=km Length=0.0140387 bus1=p100udm2984.1.2 bus2=p100ulv1392.1.2 switch=n enabled=y phases=2 Linecode=1P_UG_AL_1/0_Brenau_2

New Line.l(r:p100udm2984-p100udt1276lv) Units=km Length=0.0093006 bus1=p100udt1276lv.1.2 bus2=p100udm2984.1.2 switch=n enabled=y phases=2 Linecode=1P_UG_AL_1/0_Brenau_2

New Line.l(r:p100udm2985-p100ulv10766) Units=km Length=0.0158837 bus1=p100udm2985.1.2 bus2=p100ulv10766.1.2 switch=n enabled=y phases=2 Linecode=1P_UG_AL_1/0_Brenau_2

New Line.l(r:p100udm2985-p100udt1276lv) Units=km Length=0.018614 bus1=p100udt1276lv.1.2 bus2=p100udm2985.1.2 switch=n enabled=y phases=2 Linecode=1P_UG_AL_1/0_Brenau_2

New Line.l(r:p100udt1277lv-p100ulv1393) Units=km Length=0.0101772 bus1=p100udt1277lv.1.2 bus2=p100ulv1393.1.2 switch=n enabled=y phases=2 Linecode=1P_OH_AL_2/0_Rucina_2

New Line.l(r:p100udm2987-p100ulv3747) Units=km Length=0.0115805 bus1=p100udm2987.1.2 bus2=p100ulv3747.1.2 switch=n enabled=y phases=2 Linecode=1P_OH_AL_2/0_Rucina_2

New Line.l(r:p100udm2987-p100udt1277lv) Units=km Length=0.0179719 bus1=p100udt1277lv.1.2 bus2=p100udm2987.1.2 switch=n enabled=y phases=2 Linecode=1P_OH_AL_2/0_Rucina_2

New Line.l(r:p100udm2988-p100ulv11429) Units=km Length=0.00975267 bus1=p100udm2988.1.2 bus2=p100ulv11429.1.2 switch=n enabled=y phases=2 Linecode=1P_OH_AL_2/0_Rucina_2

New Line.l(r:p100udm2988-p100udt1277lv) Units=km Length=0.017970700000000003 bus1=p100udt1277lv.1.2 bus2=p100udm2988.1.2 switch=n enabled=y phases=2 Linecode=1P_OH_AL_2/0_Rucina_2

New Line.l(r:p100udt1278lv-p100ulv1394) Units=km Length=0.0223491 bus1=p100udt1278lv.1.2 bus2=p100ulv1394.1.2 switch=n enabled=y phases=2 Linecode=1P_OH_AL_2/0_Rucina_2

New Line.l(r:p100udt1278lv-p100ulv6493) Units=km Length=0.0126423 bus1=p100udt1278lv.1.2 bus2=p100ulv6493.1.2 switch=n enabled=y phases=2 Linecode=1P_OH_AL_2/0_Rucina_2

New Line.l(r:p100udt1278lv-p100ulv6979) Units=km Length=0.0214453 bus1=p100udt1278lv.1.2 bus2=p100ulv6979.1.2 switch=n enabled=y phases=2 Linecode=1P_OH_AL_2/0_Rucina_2

New Line.l(r:p100udt1279lv-p100ulv3746) Units=km Length=0.014934200000000002 bus1=p100udt1279lv.1.2 bus2=p100ulv3746.1.2 switch=n enabled=y phases=2 Linecode=1P_OH_AL_2/0_Rucina_2

New Line.l(r:p100udm2992-p100ulv1396) Units=km Length=0.008222850000000002 bus1=p100udm2992.1.2 bus2=p100ulv1396.1.2 switch=n enabled=y phases=2 Linecode=1P_OH_AL_2/0_Rucina_2

New Line.l(r:p100udm2992-p100udt1279lv) Units=km Length=0.009238530000000002 bus1=p100udt1279lv.1.2 bus2=p100udm2992.1.2 switch=n enabled=y phases=2 Linecode=1P_OH_AL_2/0_Rucina_2

New Line.l(r:p100udm2994-p100ulv6847) Units=km Length=0.0349239 bus1=p100udm2994.1.2 bus2=p100ulv6847.1.2 switch=n enabled=y phases=2 Linecode=1P_OH_AL_4/0_Zuzara_2

New Line.l(r:p100udm2994-p100udt1279lv) Units=km Length=0.0502191 bus1=p100udt1279lv.1.2 bus2=p100udm2994.1.2 switch=n enabled=y phases=2 Linecode=1P_OH_AL_4/0_Zuzara_2

New Line.l(r:p100udt1280lv-p100ulv1397) Units=km Length=0.0125803 bus1=p100udt1280lv.1.2 bus2=p100ulv1397.1.2 switch=n enabled=y phases=2 Linecode=1P_UG_AL_1/0_Brenau_2

New Line.l(r:p100udt1280lv-p100ulv1924) Units=km Length=0.0184029 bus1=p100udt1280lv.1.2 bus2=p100ulv1924.1.2 switch=n enabled=y phases=2 Linecode=1P_UG_AL_1/0_Brenau_2

New Line.l(r:p100udt1281lv-p100ulv1398) Units=km Length=0.0193726 bus1=p100udt1281lv.1.2 bus2=p100ulv1398.1.2 switch=n enabled=y phases=2 Linecode=1P_UG_AL_1/0_Brenau_2

New Line.l(r:p100udm3147-p100ulv1493) Units=km Length=0.058662700000000005 bus1=p100udm3147.1.2 bus2=p100ulv1493.1.2 switch=n enabled=y phases=2 Linecode=1P_UG_AL_1/0_Brenau_2

New Line.l(r:p100udm3149-p100ulv8447) Units=km Length=0.0848129 bus1=p100udm3149.1.2 bus2=p100ulv8447.1.2 switch=n enabled=y phases=2 Linecode=1P_UG_AL_1/0_Brenau_2

New Line.l(r:p100udm3147-p100udm3149) Units=km Length=0.00931336 bus1=p100udm3147.1.2 bus2=p100udm3149.1.2 switch=n enabled=y phases=2 Linecode=1P_UG_AL_1/0_Brenau_2

New Line.l(r:p100udm3147-p100udt1357lv) Units=km Length=0.00940192 bus1=p100udt1357lv.1.2 bus2=p100udm3147.1.2 switch=n enabled=y phases=2 Linecode=1P_UG_AL_1/0_Brenau_2

New Line.l(r:p100udm3150-p100ulv9772) Units=km Length=0.106801 bus1=p100udm3150.1.2 bus2=p100ulv9772.1.2 switch=n enabled=y phases=2 Linecode=1P_UG_AL_1/0_Brenau_2

New Line.l(r:p100udm3148-p100ulv2125) Units=km Length=0.0614347 bus1=p100udm3148.1.2 bus2=p100ulv2125.1.2 switch=n enabled=y phases=2 Linecode=1P_UG_AL_1/0_Brenau_2

New Line.l(r:p100udm3148-p100udm3150) Units=km Length=0.0093984 bus1=p100udm3150.1.2 bus2=p100udm3148.1.2 switch=n enabled=y phases=2 Linecode=1P_UG_AL_1/0_Brenau_2

New Line.l(r:p100udm3150-p100udt1357lv) Units=km Length=0.00940192 bus1=p100udt1357lv.1.2 bus2=p100udm3150.1.2 switch=n enabled=y phases=2 Linecode=1P_UG_AL_1/0_Brenau_2

New Line.l(r:p100udm3151-p100ulv1494) Units=km Length=0.0506365 bus1=p100udm3151.1.2 bus2=p100ulv1494.1.2 switch=n enabled=y phases=2 Linecode=1P_UG_AL_1/0_Brenau_2

New Line.l(r:p100udm3151-p100udt1358lv) Units=km Length=0.00994968 bus1=p100udt1358lv.1.2 bus2=p100udm3151.1.2 switch=n enabled=y phases=2 Linecode=1P_UG_AL_1/0_Brenau_2

New Line.l(r:p100udm3152-p100ulv4488) Units=km Length=0.0920718 bus1=p100udm3152.1.2 bus2=p100ulv4488.1.2 switch=n enabled=y phases=2 Linecode=1P_UG_AL_1/0_Brenau_2

New Line.l(r:p100udm3152-p100udt1358lv) Units=km Length=0.00945986 bus1=p100udt1358lv.1.2 bus2=p100udm3152.1.2 switch=n enabled=y phases=2 Linecode=1P_UG_AL_1/0_Brenau_2

New Line.l(r:p100udt1359lv-p100ulv1496) Units=km Length=0.0119904 bus1=p100udt1359lv.1.2 bus2=p100ulv1496.1.2 switch=n enabled=y phases=2 Linecode=1P_UG_AL_1/0_Brenau_2

New Line.l(r:p100udm3154-p100ulv2410) Units=km Length=0.0119573 bus1=p100udm3154.1.2 bus2=p100ulv2410.1.2 switch=n enabled=y phases=2 Linecode=1P_UG_AL_1/0_Brenau_2

New Line.l(r:p100udm3156-p100ulv3319) Units=km Length=0.012262200000000001 bus1=p100udm3156.1.2 bus2=p100ulv3319.1.2 switch=n enabled=y phases=2 Linecode=1P_UG_AL_1/0_Brenau_2

New Line.l(r:p100udm3154-p100udm3156) Units=km Length=0.0179492 bus1=p100udm3154.1.2 bus2=p100udm3156.1.2 switch=n enabled=y phases=2 Linecode=1P_UG_AL_1/0_Brenau_2

New Line.l(r:p100udm3154-p100udt1359lv) Units=km Length=0.00898092 bus1=p100udt1359lv.1.2 bus2=p100udm3154.1.2 switch=n enabled=y phases=2 Linecode=1P_UG_AL_2/0_Converse_2

New Line.l(r:p100udm3155-p100ulv3189) Units=km Length=0.0113748 bus1=p100udm3155.1.2 bus2=p100ulv3189.1.2 switch=n enabled=y phases=2 Linecode=1P_UG_AL_1/0_Brenau_2

New Line.l(r:p100udm3155-p100udt1359lv) Units=km Length=0.061052 bus1=p100udt1359lv.1.2 bus2=p100udm3155.1.2 switch=n enabled=y phases=2 Linecode=1P_UG_AL_1/0_Brenau_2

New Line.l(r:p100udt1361lv-p100ulv6981) Units=km Length=0.0139285 bus1=p100udt1361lv.1.2 bus2=p100ulv6981.1.2 switch=n enabled=y phases=2 Linecode=1P_UG_AL_1/0_Brenau_2

New Line.l(r:p100udm3161-p100ulv1499) Units=km Length=0.0123645 bus1=p100udm3161.1.2 bus2=p100ulv1499.1.2 switch=n enabled=y phases=2 Linecode=1P_UG_AL_1/0_Brenau_2

New Line.l(r:p100udm3161-p100udt1361lv) Units=km Length=0.0207887 bus1=p100udt1361lv.1.2 bus2=p100udm3161.1.2 switch=n enabled=y phases=2 Linecode=1P_UG_AL_1/0_Brenau_2

New Line.l(r:p100udm3162-p100ulv2520) Units=km Length=0.0116633 bus1=p100udm3162.1.2 bus2=p100ulv2520.1.2 switch=n enabled=y phases=2 Linecode=1P_UG_AL_1/0_Brenau_2

New Line.l(r:p100udm3162-p100udt1361lv) Units=km Length=0.00893983 bus1=p100udt1361lv.1.2 bus2=p100udm3162.1.2 switch=n enabled=y phases=2 Linecode=1P_UG_AL_1/0_Brenau_2

New Line.l(r:p100udt1456lv-p100ulv1606) Units=km Length=0.0303937 bus1=p100udt1456lv.1.2 bus2=p100ulv1606.1.2 switch=n enabled=y phases=2 Linecode=1P_UG_AL_4/0_Sweetbriar_2

New Line.l(r:p100udt1463lv-p100ulv8254) Units=km Length=0.016319700000000003 bus1=p100udt1463lv.1.2 bus2=p100ulv8254.1.2 switch=n enabled=y phases=2 Linecode=1P_UG_AL_1/0_Brenau_2

New Line.l(r:p100udm3355-p100ulv1616) Units=km Length=0.018226 bus1=p100udm3355.1.2 bus2=p100ulv1616.1.2 switch=n enabled=y phases=2 Linecode=1P_UG_AL_1/0_Brenau_2

New Line.l(r:p100udm3355-p100udt1463lv) Units=km Length=0.0199891 bus1=p100udt1463lv.1.2 bus2=p100udm3355.1.2 switch=n enabled=y phases=2 Linecode=1P_UG_AL_1/0_Brenau_2

New Line.l(r:p100udm3356-p100ulv3197) Units=km Length=0.00767345 bus1=p100udm3356.1.2 bus2=p100ulv3197.1.2 switch=n enabled=y phases=2 Linecode=1P_UG_AL_1/0_Brenau_2

New Line.l(r:p100udm3357-p100ulv4610) Units=km Length=0.0181985 bus1=p100udm3357.1.2 bus2=p100ulv4610.1.2 switch=n enabled=y phases=2 Linecode=1P_UG_AL_1/0_Brenau_2

New Line.l(r:p100udm3356-p100udm3357) Units=km Length=0.0099961 bus1=p100udm3356.1.2 bus2=p100udm3357.1.2 switch=n enabled=y phases=2 Linecode=1P_UG_AL_1/0_Brenau_2

New Line.l(r:p100udm3356-p100udt1463lv) Units=km Length=0.009993 bus1=p100udt1463lv.1.2 bus2=p100udm3356.1.2 switch=n enabled=y phases=2 Linecode=1P_UG_AL_4/0_Sweetbriar_2

New Line.l(r:p100udt1535lv-p100ulv1707) Units=km Length=0.0701834 bus1=p100udt1535lv.1.2 bus2=p100ulv1707.1.2 switch=n enabled=y phases=2 Linecode=1P_OH_AL_4/0_Zuzara_2

New Line.l(r:p100udm3507-p100ulv1711) Units=km Length=0.00887289 bus1=p100udm3507.1.2 bus2=p100ulv1711.1.2 switch=n enabled=y phases=2 Linecode=1P_UG_AL_1/0_Brenau_2

New Line.l(r:p100udm3507-p100udt1538lv) Units=km Length=0.018473700000000003 bus1=p100udt1538lv.1.2 bus2=p100udm3507.1.2 switch=n enabled=y phases=2 Linecode=1P_UG_AL_1/0_Brenau_2

New Line.l(r:p100udm3508-p100ulv10098) Units=km Length=0.0107615 bus1=p100udm3508.1.2 bus2=p100ulv10098.1.2 switch=n enabled=y phases=2 Linecode=1P_UG_AL_1/0_Brenau_2

New Line.l(r:p100udm3508-p100udt1538lv) Units=km Length=0.0184676 bus1=p100udt1538lv.1.2 bus2=p100udm3508.1.2 switch=n enabled=y phases=2 Linecode=1P_UG_AL_1/0_Brenau_2

New Line.l(r:p100udt1539lv-p100ulv3323) Units=km Length=0.0729495 bus1=p100udt1539lv.1.2 bus2=p100ulv3323.1.2 switch=n enabled=y phases=2 Linecode=1P_UG_AL_1/0_Brenau_2

New Line.l(r:p100udm3509-p100ulv1712) Units=km Length=0.102912 bus1=p100udm3509.1.2 bus2=p100ulv1712.1.2 switch=n enabled=y phases=2 Linecode=1P_UG_AL_1/0_Brenau_2

New Line.l(r:p100udm3509-p100udt1539lv) Units=km Length=0.0097084 bus1=p100udt1539lv.1.2 bus2=p100udm3509.1.2 switch=n enabled=y phases=2 Linecode=1P_UG_AL_1/0_Brenau_2

New Line.l(r:p100udm3512-p100ulv10997) Units=km Length=0.12014400000000001 bus1=p100udm3512.1.2 bus2=p100ulv10997.1.2 switch=n enabled=y phases=2 Linecode=1P_UG_AL_1/0_Brenau_2

New Line.l(r:p100udm3511-p100ulv7772) Units=km Length=0.0928912 bus1=p100udm3511.1.2 bus2=p100ulv7772.1.2 switch=n enabled=y phases=2 Linecode=1P_UG_AL_1/0_Brenau_2

New Line.l(r:p100udm3511-p100udm3512) Units=km Length=0.0097084 bus1=p100udm3512.1.2 bus2=p100udm3511.1.2 switch=n enabled=y phases=2 Linecode=1P_UG_AL_1/0_Brenau_2

New Line.l(r:p100udm3512-p100udt1539lv) Units=km Length=0.00971481 bus1=p100udt1539lv.1.2 bus2=p100udm3512.1.2 switch=n enabled=y phases=2 Linecode=1P_UG_AL_2/0_Converse_2

New Line.l(r:p100udm3675-p100ulv3742) Units=km Length=0.0117652 bus1=p100udm3675.1.2 bus2=p100ulv3742.1.2 switch=n enabled=y phases=2 Linecode=1P_UG_AL_1/0_Brenau_2

New Line.l(r:p100udm3675-p100ulv7879) Units=km Length=0.030935900000000002 bus1=p100udm3675.1.2 bus2=p100ulv7879.1.2 switch=n enabled=y phases=2 Linecode=1P_UG_AL_1/0_Brenau_2

New Line.l(r:p100udm3674-p100ulv1812) Units=km Length=0.00794776 bus1=p100udm3674.1.2 bus2=p100ulv1812.1.2 switch=n enabled=y phases=2 Linecode=1P_UG_AL_1/0_Brenau_2

New Line.l(r:p100udm3674-p100udm3675) Units=km Length=0.00972934 bus1=p100udm3675.1.2 bus2=p100udm3674.1.2 switch=n enabled=y phases=2 Linecode=1P_UG_AL_1/0_Brenau_2

New Line.l(r:p100udm3675-p100udt1615lv) Units=km Length=0.00972934 bus1=p100udt1615lv.1.2 bus2=p100udm3675.1.2 switch=n enabled=y phases=2 Linecode=1P_UG_AL_4/0_Sweetbriar_2

New Line.l(r:p100udm3676-p100ulv5828) Units=km Length=0.0226597 bus1=p100udm3676.1.2 bus2=p100ulv5828.1.2 switch=n enabled=y phases=2 Linecode=1P_UG_AL_1/0_Brenau_2

New Line.l(r:p100udm3676-p100udt1615lv) Units=km Length=0.0194637 bus1=p100udt1615lv.1.2 bus2=p100udm3676.1.2 switch=n enabled=y phases=2 Linecode=1P_UG_AL_1/0_Brenau_2

New Line.l(r:p100udt1616lv-p100ulv1813) Units=km Length=0.0335673 bus1=p100udt1616lv.1.2 bus2=p100ulv1813.1.2 switch=n enabled=y phases=2 Linecode=1P_OH_AL_4/0_Zuzara_2

New Line.l(r:p100udm3679-p100ulv10552) Units=km Length=0.0220232 bus1=p100udm3679.1.2 bus2=p100ulv10552.1.2 switch=n enabled=y phases=2 Linecode=1P_OH_AL_2/0_Rucina_2

New Line.l(r:p100udm3679-p100udt1616lv) Units=km Length=0.0198252 bus1=p100udt1616lv.1.2 bus2=p100udm3679.1.2 switch=n enabled=y phases=2 Linecode=1P_OH_AL_2/0_Rucina_2

New Line.l(r:p100udt1618lv-p100ulv1815) Units=km Length=0.001 bus1=p100udt1618lv.1.2 bus2=p100ulv1815.1.2 switch=n enabled=y phases=2 Linecode=1P_UG_AL_1/0_Brenau_2

New Line.l(r:p100udt1783lv-p100ulv2030) Units=km Length=0.0611213 bus1=p100udt1783lv.1.2 bus2=p100ulv2030.1.2 switch=n enabled=y phases=2 Linecode=1P_UG_AL_1/0_Brenau_2

New Line.l(r:p100udm4028-p100ulv5368) Units=km Length=0.0899104 bus1=p100udm4028.1.2 bus2=p100ulv5368.1.2 switch=n enabled=y phases=2 Linecode=1P_UG_AL_1/0_Brenau_2

New Line.l(r:p100udm4028-p100udt1783lv) Units=km Length=0.0279634 bus1=p100udt1783lv.1.2 bus2=p100udm4028.1.2 switch=n enabled=y phases=2 Linecode=1P_UG_AL_1/0_Brenau_2

New Line.l(r:p100udm4029-p100ulv6713) Units=km Length=0.0115746 bus1=p100udm4029.1.2 bus2=p100ulv6713.1.2 switch=n enabled=y phases=2 Linecode=1P_UG_AL_1/0_Brenau_2

New Line.l(r:p100udm4030-p100ulv11222) Units=km Length=0.04804 bus1=p100udm4030.1.2 bus2=p100ulv11222.1.2 switch=n enabled=y phases=2 Linecode=1P_UG_AL_2/0_Converse_2

New Line.l(r:p100udm4029-p100udm4030) Units=km Length=0.00946215 bus1=p100udm4029.1.2 bus2=p100udm4030.1.2 switch=n enabled=y phases=2 Linecode=1P_UG_AL_2/0_Converse_2

New Line.l(r:p100udm4029-p100udt1783lv) Units=km Length=0.0094591 bus1=p100udt1783lv.1.2 bus2=p100udm4029.1.2 switch=n enabled=y phases=2 Linecode=1P_UG_AL_4/0_Sweetbriar_2

New Line.l(r:p100udm4031-p100ulv2031) Units=km Length=0.00984315 bus1=p100udm4031.1.2 bus2=p100ulv2031.1.2 switch=n enabled=y phases=2 Linecode=1P_UG_AL_1/0_Brenau_2

New Line.l(r:p100udm4031-p100udt1784lv) Units=km Length=0.022465100000000005 bus1=p100udt1784lv.1.2 bus2=p100udm4031.1.2 switch=n enabled=y phases=2 Linecode=1P_UG_AL_1/0_Brenau_2

New Line.l(r:p100udm4032-p100ulv7409) Units=km Length=0.0108449 bus1=p100udm4032.1.2 bus2=p100ulv7409.1.2 switch=n enabled=y phases=2 Linecode=1P_UG_AL_1/0_Brenau_2

New Line.l(r:p100udm4032-p100udt1784lv) Units=km Length=0.0286478 bus1=p100udt1784lv.1.2 bus2=p100udm4032.1.2 switch=n enabled=y phases=2 Linecode=1P_UG_AL_1/0_Brenau_2

New Line.l(r:p100udm4033-p100ulv2032) Units=km Length=0.0140894 bus1=p100udm4033.1.2 bus2=p100ulv2032.1.2 switch=n enabled=y phases=2 Linecode=1P_UG_AL_1/0_Brenau_2

New Line.l(r:p100udm4033-p100udt1785lv) Units=km Length=0.038097 bus1=p100udt1785lv.1.2 bus2=p100udm4033.1.2 switch=n enabled=y phases=2 Linecode=1P_UG_AL_1/0_Brenau_2

New Line.l(r:p100udm4034-p100ulv6487) Units=km Length=0.0348903 bus1=p100udm4034.1.2 bus2=p100ulv6487.1.2 switch=n enabled=y phases=2 Linecode=1P_UG_AL_1/0_Brenau_2

New Line.l(r:p100udm4034-p100udt1785lv) Units=km Length=0.028568800000000002 bus1=p100udt1785lv.1.2 bus2=p100udm4034.1.2 switch=n enabled=y phases=2 Linecode=1P_UG_AL_1/0_Brenau_2

New Line.l(r:p100udt1789lv-p100ulv5827) Units=km Length=0.0114938 bus1=p100udt1789lv.1.2 bus2=p100ulv5827.1.2 switch=n enabled=y phases=2 Linecode=1P_UG_AL_1/0_Brenau_2

New Line.l(r:p100udm4041-p100ulv10660) Units=km Length=0.0115131 bus1=p100udm4041.1.2 bus2=p100ulv10660.1.2 switch=n enabled=y phases=2 Linecode=1P_UG_AL_1/0_Brenau_2

New Line.l(r:p100udm4039-p100ulv2811) Units=km Length=0.018877 bus1=p100udm4039.1.2 bus2=p100ulv2811.1.2 switch=n enabled=y phases=2 Linecode=1P_UG_AL_1/0_Brenau_2

New Line.l(r:p100udm4038-p100ulv2036) Units=km Length=0.0179452 bus1=p100udm4038.1.2 bus2=p100ulv2036.1.2 switch=n enabled=y phases=2 Linecode=1P_UG_AL_1/0_Brenau_2

New Line.l(r:p100udm4038-p100udm4039) Units=km Length=0.0299017 bus1=p100udm4039.1.2 bus2=p100udm4038.1.2 switch=n enabled=y phases=2 Linecode=1P_UG_AL_1/0_Brenau_2

New Line.l(r:p100udm4039-p100udm4041) Units=km Length=0.00995948 bus1=p100udm4041.1.2 bus2=p100udm4039.1.2 switch=n enabled=y phases=2 Linecode=1P_UG_AL_4/0_Sweetbriar_2

New Line.l(r:p100udm4041-p100udt1789lv) Units=km Length=0.00996725 bus1=p100udt1789lv.1.2 bus2=p100udm4041.1.2 switch=n enabled=y phases=2 Linecode=1P_UG_AL_4/0_Sweetbriar_2

New Line.l(r:p100udm4042-p100ulv10665) Units=km Length=0.0123634 bus1=p100udm4042.1.2 bus2=p100ulv10665.1.2 switch=n enabled=y phases=2 Linecode=1P_UG_AL_1/0_Brenau_2

New Line.l(r:p100udm4042-p100udt1789lv) Units=km Length=0.059369200000000004 bus1=p100udt1789lv.1.2 bus2=p100udm4042.1.2 switch=n enabled=y phases=2 Linecode=1P_UG_AL_1/0_Brenau_2

New Line.l(r:p100udt1790lv-p100ulv4384) Units=km Length=0.013485000000000002 bus1=p100udt1790lv.1.2 bus2=p100ulv4384.1.2 switch=n enabled=y phases=2 Linecode=1P_UG_AL_1/0_Brenau_2

New Line.l(r:p100udm4043-p100ulv2037) Units=km Length=0.0103888 bus1=p100udm4043.1.2 bus2=p100ulv2037.1.2 switch=n enabled=y phases=2 Linecode=1P_UG_AL_1/0_Brenau_2

New Line.l(r:p100udm4043-p100udt1790lv) Units=km Length=0.00958524 bus1=p100udt1790lv.1.2 bus2=p100udm4043.1.2 switch=n enabled=y phases=2 Linecode=1P_UG_AL_1/0_Brenau_2

New Line.l(r:p100udt1791lv-p100ulv2813) Units=km Length=0.0118495 bus1=p100udt1791lv.1.2 bus2=p100ulv2813.1.2 switch=n enabled=y phases=2 Linecode=1P_UG_AL_1/0_Brenau_2

New Line.l(r:p100udm4045-p100ulv2038) Units=km Length=0.0167321 bus1=p100udm4045.1.2 bus2=p100ulv2038.1.2 switch=n enabled=y phases=2 Linecode=1P_UG_AL_1/0_Brenau_2

New Line.l(r:p100udm4045-p100udt1791lv) Units=km Length=0.0098957 bus1=p100udt1791lv.1.2 bus2=p100udm4045.1.2 switch=n enabled=y phases=2 Linecode=1P_UG_AL_1/0_Brenau_2

New Line.l(r:p100udm4047-p100ulv4605) Units=km Length=0.0150922 bus1=p100udm4047.1.2 bus2=p100ulv4605.1.2 switch=n enabled=y phases=2 Linecode=1P_UG_AL_1/0_Brenau_2

New Line.l(r:p100udm4047-p100udt1791lv) Units=km Length=0.00989874 bus1=p100udt1791lv.1.2 bus2=p100udm4047.1.2 switch=n enabled=y phases=2 Linecode=1P_UG_AL_1/0_Brenau_2

New Line.l(r:p100udt1860lv-p100ulv2124) Units=km Length=0.0566884 bus1=p100udt1860lv.1.2 bus2=p100ulv2124.1.2 switch=n enabled=y phases=2 Linecode=1P_OH_AL_4/0_Zuzara_2

New Line.l(r:p100udt1860lv-p100ulv6710) Units=km Length=0.0473899 bus1=p100udt1860lv.1.2 bus2=p100ulv6710.1.2 switch=n enabled=y phases=2 Linecode=1P_OH_AL_4/0_Zuzara_2

New Line.l(r:p100udt1860lv-p100ulv8794) Units=km Length=0.07789530000000001 bus1=p100udt1860lv.1.2 bus2=p100ulv8794.1.2 switch=n enabled=y phases=2 Linecode=1P_OH_AL_4/0_Zuzara_2

New Line.l(r:p100udt1860lv-p100ulv9770) Units=km Length=0.02571 bus1=p100udt1860lv.1.2 bus2=p100ulv9770.1.2 switch=n enabled=y phases=2 Linecode=1P_OH_AL_2/0_Rucina_2

New Line.l(r:p100udt1861lv-p100ulv2126) Units=km Length=0.001 bus1=p100udt1861lv.1.2 bus2=p100ulv2126.1.2 switch=n enabled=y phases=2 Linecode=1P_OH_AL_4_Periwinkle_2

New Line.l(r:p100udt1862lv-p100ulv2127) Units=km Length=0.0264219 bus1=p100udt1862lv.1.2 bus2=p100ulv2127.1.2 switch=n enabled=y phases=2 Linecode=1P_OH_AL_2/0_Rucina_2

New Line.l(r:p100udm4194-p100ulv3949) Units=km Length=0.026674500000000004 bus1=p100udm4194.1.2 bus2=p100ulv3949.1.2 switch=n enabled=y phases=2 Linecode=1P_OH_AL_2/0_Rucina_2

New Line.l(r:p100udm4194-p100udt1862lv) Units=km Length=0.0597382 bus1=p100udt1862lv.1.2 bus2=p100udm4194.1.2 switch=n enabled=y phases=2 Linecode=1P_OH_AL_4/0_Zuzara_2

New Line.l(r:p100udm4195-p100ulv7664) Units=km Length=0.030836400000000003 bus1=p100udm4195.1.2 bus2=p100ulv7664.1.2 switch=n enabled=y phases=2 Linecode=1P_OH_AL_4/0_Zuzara_2

New Line.l(r:p100udm4195-p100udt1862lv) Units=km Length=0.0574401 bus1=p100udt1862lv.1.2 bus2=p100udm4195.1.2 switch=n enabled=y phases=2 Linecode=1P_OH_AL_4/0_Zuzara_2

New Line.l(r:p100udt1866lv-p100ulv2136) Units=km Length=0.0138088 bus1=p100udt1866lv.1.2 bus2=p100ulv2136.1.2 switch=n enabled=y phases=2 Linecode=1P_UG_AL_1/0_Brenau_2

New Line.l(r:p100udt1867lv-p100ulv11537) Units=km Length=0.0222972 bus1=p100udt1867lv.1.2 bus2=p100ulv11537.1.2 switch=n enabled=y phases=2 Linecode=1P_UG_AL_1/0_Brenau_2

New Line.l(r:p100udm4201-p100ulv2137) Units=km Length=0.0707314 bus1=p100udm4201.1.2 bus2=p100ulv2137.1.2 switch=n enabled=y phases=2 Linecode=1P_UG_AL_1/0_Brenau_2

New Line.l(r:p100udm4201-p100udt1867lv) Units=km Length=0.0294584 bus1=p100udt1867lv.1.2 bus2=p100udm4201.1.2 switch=n enabled=y phases=2 Linecode=1P_UG_AL_1/0_Brenau_2

New Line.l(r:p100udm4202-p100ulv7670) Units=km Length=0.11823100000000002 bus1=p100udm4202.1.2 bus2=p100ulv7670.1.2 switch=n enabled=y phases=2 Linecode=1P_UG_AL_1/0_Brenau_2

New Line.l(r:p100udm4202-p100ulv9785) Units=km Length=0.0870701 bus1=p100udm4202.1.2 bus2=p100ulv9785.1.2 switch=n enabled=y phases=2 Linecode=1P_UG_AL_1/0_Brenau_2

New Line.l(r:p100udm4202-p100udt1867lv) Units=km Length=0.00981835 bus1=p100udt1867lv.1.2 bus2=p100udm4202.1.2 switch=n enabled=y phases=2 Linecode=1P_UG_AL_4/0_Sweetbriar_2

New Line.l(r:p100udt1960lv-p100ulv2254) Units=km Length=0.001 bus1=p100udt1960lv.1.2 bus2=p100ulv2254.1.2 switch=n enabled=y phases=2 Linecode=1P_OH_AL_4_Periwinkle_2

New Line.l(r:p100udm4389-p100ulv2256) Units=km Length=0.00992854 bus1=p100udm4389.1.2 bus2=p100ulv2256.1.2 switch=n enabled=y phases=2 Linecode=1P_UG_AL_1/0_Brenau_2

New Line.l(r:p100udm4389-p100udt1962lv) Units=km Length=0.0420725 bus1=p100udt1962lv.1.2 bus2=p100udm4389.1.2 switch=n enabled=y phases=2 Linecode=1P_UG_AL_1/0_Brenau_2

New Line.l(r:p100udm4390-p100ulv10090) Units=km Length=0.0316646 bus1=p100udm4390.1.2 bus2=p100ulv10090.1.2 switch=n enabled=y phases=2 Linecode=1P_UG_AL_1/0_Brenau_2

New Line.l(r:p100udm4390-p100udt1962lv) Units=km Length=0.0355118 bus1=p100udt1962lv.1.2 bus2=p100udm4390.1.2 switch=n enabled=y phases=2 Linecode=1P_UG_AL_1/0_Brenau_2

New Line.l(r:p100udm4401-p100ulv2261) Units=km Length=0.00588501 bus1=p100udm4401.1.2 bus2=p100ulv2261.1.2 switch=n enabled=y phases=2 Linecode=1P_OH_AL_2/0_Rucina_2

New Line.l(r:p100udm4401-p100udt1967lv) Units=km Length=0.0188853 bus1=p100udt1967lv.1.2 bus2=p100udm4401.1.2 switch=n enabled=y phases=2 Linecode=1P_OH_AL_2/0_Rucina_2

New Line.l(r:p100udm4402-p100ulv2417) Units=km Length=0.0728797 bus1=p100udm4402.1.2 bus2=p100ulv2417.1.2 switch=n enabled=y phases=2 Linecode=1P_OH_AL_4/0_Zuzara_2

New Line.l(r:p100udm4402-p100udt1967lv) Units=km Length=0.0377835 bus1=p100udt1967lv.1.2 bus2=p100udm4402.1.2 switch=n enabled=y phases=2 Linecode=1P_OH_AL_4/0_Zuzara_2

New Line.l(r:p100udt2072lv-p100ulv2402) Units=km Length=0.001 bus1=p100udt2072lv.1.2 bus2=p100ulv2402.1.2 switch=n enabled=y phases=2 Linecode=1P_UG_AL_1/0_Brenau_2

New Line.l(r:p100udt2073lv-p100ulv2403) Units=km Length=0.06636640000000002 bus1=p100udt2073lv.1.2 bus2=p100ulv2403.1.2 switch=n enabled=y phases=2 Linecode=1P_OH_AL_4/0_Zuzara_2

New Line.l(r:p100udm4621-p100ulv2404) Units=km Length=0.0482168 bus1=p100udm4621.1.2 bus2=p100ulv2404.1.2 switch=n enabled=y phases=2 Linecode=1P_UG_AL_1/0_Brenau_2

New Line.l(r:p100udm4621-p100udt2074lv) Units=km Length=0.0187496 bus1=p100udt2074lv.1.2 bus2=p100udm4621.1.2 switch=n enabled=y phases=2 Linecode=1P_UG_AL_1/0_Brenau_2

New Line.l(r:p100udm4622-p100ulv6609) Units=km Length=0.0499947 bus1=p100udm4622.1.2 bus2=p100ulv6609.1.2 switch=n enabled=y phases=2 Linecode=1P_UG_AL_1/0_Brenau_2

New Line.l(r:p100udm4622-p100udt2074lv) Units=km Length=0.0187466 bus1=p100udt2074lv.1.2 bus2=p100udm4622.1.2 switch=n enabled=y phases=2 Linecode=1P_UG_AL_1/0_Brenau_2

New Line.l(r:p100udt2075lv-p100ulv2405) Units=km Length=0.0849926 bus1=p100udt2075lv.1.2 bus2=p100ulv2405.1.2 switch=n enabled=y phases=2 Linecode=1P_UG_AL_1/0_Brenau_2

New Line.l(r:p100udt2076lv-p100ulv2406) Units=km Length=0.0298298 bus1=p100udt2076lv.1.2 bus2=p100ulv2406.1.2 switch=n enabled=y phases=2 Linecode=1P_UG_AL_4/0_Sweetbriar_2

New Line.l(r:p100udt2078lv-p100ulv2409) Units=km Length=0.001 bus1=p100udt2078lv.1.2 bus2=p100ulv2409.1.2 switch=n enabled=y phases=2 Linecode=1P_OH_AL_4_Periwinkle_2

New Line.l(r:p100udt2080lv-p100ulv2413) Units=km Length=0.0271688 bus1=p100udt2080lv.1.2 bus2=p100ulv2413.1.2 switch=n enabled=y phases=2 Linecode=1P_UG_AL_1/0_Brenau_2

New Line.l(r:p100udt2158lv-p100ulv2518) Units=km Length=0.0270204 bus1=p100udt2158lv.1.2 bus2=p100ulv2518.1.2 switch=n enabled=y phases=2 Linecode=1P_UG_AL_1/0_Brenau_2

New Line.l(r:p100udt2229lv-p100ulv4386) Units=km Length=0.0230263 bus1=p100udt2229lv.1.2 bus2=p100ulv4386.1.2 switch=n enabled=y phases=2 Linecode=1P_UG_AL_1/0_Brenau_2

New Line.l(r:p100udm4928-p100ulv2614) Units=km Length=0.0174593 bus1=p100udm4928.1.2 bus2=p100ulv2614.1.2 switch=n enabled=y phases=2 Linecode=1P_UG_AL_1/0_Brenau_2

New Line.l(r:p100udm4928-p100udt2229lv) Units=km Length=0.00891249 bus1=p100udt2229lv.1.2 bus2=p100udm4928.1.2 switch=n enabled=y phases=2 Linecode=1P_UG_AL_1/0_Brenau_2

New Line.l(r:p100udm4931-p100ulv2618) Units=km Length=0.0162822 bus1=p100udm4931.1.2 bus2=p100ulv2618.1.2 switch=n enabled=y phases=2 Linecode=1P_UG_AL_1/0_Brenau_2

New Line.l(r:p100udm4931-p100udt2231lv) Units=km Length=0.00858389 bus1=p100udt2231lv.1.2 bus2=p100udm4931.1.2 switch=n enabled=y phases=2 Linecode=1P_UG_AL_1/0_Brenau_2

New Line.l(r:p100udm4932-p100ulv8255) Units=km Length=0.0267726 bus1=p100udm4932.1.2 bus2=p100ulv8255.1.2 switch=n enabled=y phases=2 Linecode=1P_UG_AL_1/0_Brenau_2

New Line.l(r:p100udm4932-p100udt2231lv) Units=km Length=0.0765115 bus1=p100udt2231lv.1.2 bus2=p100udm4932.1.2 switch=n enabled=y phases=2 Linecode=1P_UG_AL_1/0_Brenau_2

New Line.l(r:p100udt2296lv-p100ulv2716) Units=km Length=0.0355262 bus1=p100udt2296lv.1.2 bus2=p100ulv2716.1.2 switch=n enabled=y phases=2 Linecode=1P_OH_AL_4/0_Zuzara_2

New Line.l(r:p100udt2302lv-p100ulv2723) Units=km Length=0.0232403 bus1=p100udt2302lv.1.2 bus2=p100ulv2723.1.2 switch=n enabled=y phases=2 Linecode=1P_UG_AL_1/0_Brenau_2

New Line.l(r:p100udt2302lv-p100ulv10224) Units=km Length=0.0232403 bus1=p100udt2302lv.1.2 bus2=p100ulv10224.1.2 switch=n enabled=y phases=2 Linecode=1P_UG_AL_1/0_Brenau_2

New Line.l(r:p100udm5218-p100ulv2810) Units=km Length=0.0326846 bus1=p100udm5218.1.2 bus2=p100ulv2810.1.2 switch=n enabled=y phases=2 Linecode=1P_UG_AL_1/0_Brenau_2

New Line.l(r:p100udm5218-p100udt2369lv) Units=km Length=0.0239331 bus1=p100udt2369lv.1.2 bus2=p100udm5218.1.2 switch=n enabled=y phases=2 Linecode=1P_UG_AL_1/0_Brenau_2

New Line.l(r:p100udm5219-p100ulv3316) Units=km Length=0.0339053 bus1=p100udm5219.1.2 bus2=p100ulv3316.1.2 switch=n enabled=y phases=2 Linecode=1P_UG_AL_1/0_Brenau_2

New Line.l(r:p100udm5219-p100ulv11421) Units=km Length=0.0178193 bus1=p100udm5219.1.2 bus2=p100ulv11421.1.2 switch=n enabled=y phases=2 Linecode=1P_UG_AL_1/0_Brenau_2

New Line.l(r:p100udm5219-p100udt2369lv) Units=km Length=0.009774630000000001 bus1=p100udt2369lv.1.2 bus2=p100udm5219.1.2 switch=n enabled=y phases=2 Linecode=1P_UG_AL_1/0_Brenau_2

...