data/power/better_grids/example1/Loads.dss
New Load.load_p100ulv84_1 conn=wye bus1=p100ulv84.1 kV=0.12 Vminpu=0.8 Vmaxpu=1.2 model=1 kW=7.0407892171224695 kvar=1.884870439144788 Phases=1 yearly=res_kw_8145-North-Central_pu

New Load.load_p100ulv84_2 conn=wye bus1=p100ulv84.2 kV=0.12 Vminpu=0.8 Vmaxpu=1.2 model=1 kW=7.0407892171224695 kvar=1.884870439144788 Phases=1 yearly=res_kw_8145-North-Central_pu

New Load.load_p100ulv86_1 conn=wye bus1=p100ulv86.1 kV=0.12 Vminpu=0.8 Vmaxpu=1.2 model=1 kW=10.269259695919159 kvar=1.2240724970618244 Phases=1 yearly=res_kw_11660-North-Central_pu

New Load.load_p100ulv86_2 conn=wye bus1=p100ulv86.2 kV=0.12 Vminpu=0.8 Vmaxpu=1.2 model=1 kW=10.269259695919159 kvar=1.2240724970618244 Phases=1 yearly=res_kw_11660-North-Central_pu

New Load.load_p100ulv87_1 conn=wye bus1=p100ulv87.1 kV=0.12 Vminpu=0.8 Vmaxpu=1.2 model=1 kW=4.986824140389851 kvar=0.6915615155415423 Phases=1 yearly=res_kw_4250-North-Central_pu

New Load.load_p100ulv87_2 conn=wye bus1=p100ulv87.2 kV=0.12 Vminpu=0.8 Vmaxpu=1.2 model=1 kW=4.986824140389851 kvar=0.6915615155415423 Phases=1 yearly=res_kw_4250-North-Central_pu

New Load.load_p100ulv88_1 conn=wye bus1=p100ulv88.1 kV=0.12 Vminpu=0.8 Vmaxpu=1.2 model=1 kW=4.720060936137713 kvar=0.8554262904956081 Phases=1 yearly=res_kw_42025-North-Central_pu

New Load.load_p100ulv88_2 conn=wye bus1=p100ulv88.2 kV=0.12 Vminpu=0.8 Vmaxpu=1.2 model=1 kW=4.720060936137713 kvar=0.8554262904956081 Phases=1 yearly=res_kw_42025-North-Central_pu

New Load.load_p100ulv89_1 conn=wye bus1=p100ulv89.1 kV=0.12 Vminpu=0.8 Vmaxpu=1.2 model=1 kW=3.569270405133197 kvar=1.2416904479158495 Phases=1 yearly=res_kw_4064-North-Central_pu

New Load.load_p100ulv89_2 conn=wye bus1=p100ulv89.2 kV=0.12 Vminpu=0.8 Vmaxpu=1.2 model=1 kW=3.569270405133197 kvar=1.2416904479158495 Phases=1 yearly=res_kw_4064-North-Central_pu

New Load.load_p100ulv92_1 conn=wye bus1=p100ulv92.1 kV=0.12 Vminpu=0.8 Vmaxpu=1.2 model=1 kW=6.686672623216323 kvar=1.3334711669345183 Phases=1 yearly=res_kw_41212-North-Central_pu

New Load.load_p100ulv92_2 conn=wye bus1=p100ulv92.2 kV=0.12 Vminpu=0.8 Vmaxpu=1.2 model=1 kW=6.686672623216323 kvar=1.3334711669345183 Phases=1 yearly=res_kw_41212-North-Central_pu

New Load.load_p100ulv93_1 conn=wye bus1=p100ulv93.1 kV=0.12 Vminpu=0.8 Vmaxpu=1.2 model=1 kW=1.7174955274987096 kvar=0.4900439779513608 Phases=1 yearly=res_kw_44315-North-Central_pu

New Load.load_p100ulv93_2 conn=wye bus1=p100ulv93.2 kV=0.12 Vminpu=0.8 Vmaxpu=1.2 model=1 kW=1.7174955274987096 kvar=0.4900439779513608 Phases=1 yearly=res_kw_44315-North-Central_pu

New Load.load_p100ulv94_1 conn=wye bus1=p100ulv94.1 kV=0.12 Vminpu=0.8 Vmaxpu=1.2 model=1 kW=7.734761133502574 kvar=1.6409632006954913 Phases=1 yearly=res_kw_30571-North-Central_pu

New Load.load_p100ulv94_2 conn=wye bus1=p100ulv94.2 kV=0.12 Vminpu=0.8 Vmaxpu=1.2 model=1 kW=7.734761133502574 kvar=1.6409632006954913 Phases=1 yearly=res_kw_30571-North-Central_pu

New Load.load_p100ulv192_1 conn=wye bus1=p100ulv192.1 kV=0.12 Vminpu=0.8 Vmaxpu=1.2 model=1 kW=3.6313237551897584 kvar=0.6872965235124997 Phases=1 yearly=res_kw_31462-North-Central_pu

New Load.load_p100ulv192_2 conn=wye bus1=p100ulv192.2 kV=0.12 Vminpu=0.8 Vmaxpu=1.2 model=1 kW=3.6313237551897584 kvar=0.6872965235124997 Phases=1 yearly=res_kw_31462-North-Central_pu

New Load.load_p100ulv193 conn=wye bus1=p100ulv193.1.2.3 kV=0.48 Vminpu=0.8 Vmaxpu=1.2 model=1 kW=17.095038707670042 kvar=4.173855421136225 Phases=3 yearly=com_kw_20522-North-Central_pu

New Load.load_p100ulv199_1 conn=wye bus1=p100ulv199.1 kV=0.12 Vminpu=0.8 Vmaxpu=1.2 model=1 kW=5.860666854875363 kvar=1.4299011749477417 Phases=1 yearly=res_kw_15778-North-Central_pu

New Load.load_p100ulv199_2 conn=wye bus1=p100ulv199.2 kV=0.12 Vminpu=0.8 Vmaxpu=1.2 model=1 kW=5.860666854875363 kvar=1.4299011749477417 Phases=1 yearly=res_kw_15778-North-Central_pu

New Load.load_p100ulv300_1 conn=wye bus1=p100ulv300.1 kV=0.12 Vminpu=0.8 Vmaxpu=1.2 model=1 kW=6.50830536366852 kvar=0.22550498902372224 Phases=1 yearly=res_kw_2824-North-Central_pu

New Load.load_p100ulv300_2 conn=wye bus1=p100ulv300.2 kV=0.12 Vminpu=0.8 Vmaxpu=1.2 model=1 kW=6.50830536366852 kvar=0.22550498902372224 Phases=1 yearly=res_kw_2824-North-Central_pu

New Load.load_p100ulv302_1 conn=wye bus1=p100ulv302.1 kV=0.12 Vminpu=0.8 Vmaxpu=1.2 model=1 kW=6.009387991759577 kvar=1.4401293448207038 Phases=1 yearly=res_kw_39817-North-Central_pu

New Load.load_p100ulv302_2 conn=wye bus1=p100ulv302.2 kV=0.12 Vminpu=0.8 Vmaxpu=1.2 model=1 kW=6.009387991759577 kvar=1.4401293448207038 Phases=1 yearly=res_kw_39817-North-Central_pu

New Load.load_p100ulv413_1 conn=wye bus1=p100ulv413.1 kV=0.12 Vminpu=0.8 Vmaxpu=1.2 model=1 kW=4.720060936137713 kvar=0.8554262904956081 Phases=1 yearly=res_kw_42025-North-Central_pu

New Load.load_p100ulv413_2 conn=wye bus1=p100ulv413.2 kV=0.12 Vminpu=0.8 Vmaxpu=1.2 model=1 kW=4.720060936137713 kvar=0.8554262904956081 Phases=1 yearly=res_kw_42025-North-Central_pu

...